CO2 Injection                                                                   
ROCKS----1----*----2----*----3----*----4----*----5----*----6----*----7----*----8
BST      2    2300.0       0.1  8.65E-14  8.65E-14  8.65E-14       1.6    1000.0          
   4.5E-10       0.0       1.6       0.0       0.0
    7           0.55       0.3       1.0      0.25
    7          0.457       0.0   5.05E-510000000.0       1.0
ROCK1    2   2.91E62      0.15  8.75E-14  8.75E-14  8.75E-14      2.51     920.0          
   4.5E-10       0.0      2.51       0.0       0.0
    7          0.457       0.3       1.0      0.05
    7          0.457       0.0  5.105E-510000000.0     0.999

SELEC----1----*----2----*----3----*----4----*----5----*----6----*----7----*----8
    1                                                 0    0    0    0    0     
       0.8       0.8                                                            

MULTI----1----*----2----*----3----*----4----*----5----*----6----*----7----*----8
    3    3    3    6
START----1----*----2----*----3----*----4----*----5----*----6----*----7----*----8
PARAM----1-MOP* 123456789012345678901234----*----5----*----6----*----7----*----8
16 19999    9999000000010001  08 000   0                                        
       0.031536000.0      0.01  100000.0                9.81       4.0       1.0
    1.0E-6       1.0                 1.0       1.0          
                                                                                
SOLVR----1----*----2----*----3----*----4----*----5----*----6----*----7----*----8
5  Z1   O0       0.8    1.0E-5
TIMES----1----*----2----*----3----*----4----*----5----*----6----*----7----*----8
   76   76
       0.0   43200.0   86400.0  432000.0  864000.0 1296000.0 1728000.0 2160000.0
 2592000.0 3024000.0 3456000.0 3888000.0 4320000.0 4752000.0 5184000.0 5616000.0
 6048000.0 6480000.0 6912000.0 7344000.0 7776000.0 8208000.0 8640000.0 9072000.0
 9504000.0 9936000.010368000.010800000.011232000.011664000.012096000.012528000.0
12960000.013392000.013824000.014256000.014688000.015120000.015552000.015984000.0
16416000.016848000.017280000.017712000.018144000.018576000.019008000.019440000.0
19872000.020304000.020736000.021168000.021600000.022032000.022464000.022896000.0
23328000.023760000.024192000.024624000.025056000.025488000.025920000.026352000.0
26784000.027216000.027648000.028080000.028512000.028944000.029376000.029808000.0
30240000.030672000.031104000.031536000.0
ELEME----1----*----2----*----3----*----4----*----5----*----6----*----7----*----8
    1          BST  2.21361314       0.0       1.00.22988284       2.5-98.333333
    2          BST  7.08909607       0.0       1.00.70114267       2.5-98.333333
    3          BST  12.6967454       0.0       1.01.19596548       2.5-98.333333
    4          BST  19.1232296       0.0       1.01.71552944       2.5-98.333333
    5          BST  26.4646818       0.0       1.0 2.2610716       2.5-98.333333
    6          BST   34.827699       0.0       1.02.83389086       2.5-98.333333
    7          BST  44.3304448       0.0       1.03.43535109       2.5-98.333333
    8          BST  55.1038673       0.0       1.04.06688432       2.5-98.333333
    9          BST  67.2930433       0.0       1.04.72999422       2.5-98.333333
   10          BST  81.0586612       0.0       1.05.42625962       2.5-98.333333
   11          BST  96.5786591       0.0       1.06.15733828       2.5-98.333333
   12          BST  114.050031       0.0       1.06.92497088       2.5-98.333333
   13          BST  133.690821       0.0       1.07.73098511       2.5-98.333333
   14          BST  155.742326       0.0       1.08.57730005       2.5-98.333333
   15          BST   180.47152       0.0       1.09.46593073       2.5-98.333333
   16          BST  208.173736       0.0       1.0 10.398993       2.5-98.333333
   17          BST  239.175624       0.0       1.011.3787083       2.5-98.333333
   18          BST  273.838409       0.0       1.012.4074094       2.5-98.333333
   19          BST  312.561494       0.0       1.013.4875455       2.5-98.333333
   20          BST  355.786427       0.0       1.014.6216885       2.5-98.333333
   21          BST  404.001285       0.0       1.015.8125386       2.5-98.333333
   22          BST  457.745504       0.0       1.017.0629312       2.5-98.333333
   23          BST  517.615209       0.0       1.018.3758435       2.5-98.333333
   24          BST  584.269098       0.0       1.019.7544013       2.5-98.333333
   25          BST  658.434928       0.0       1.021.2018871       2.5-98.333333
   26          BST  740.916668       0.0       1.022.7217471       2.5-98.333333
   27          BST  832.602394       0.0       1.024.3176001       2.5-98.333333
   28          BST  934.472995       0.0       1.025.9932458       2.5-98.333333
   29          BST  1047.61178       0.0       1.027.7526738       2.5-98.333333
   30          BST  1173.21505       0.0       1.029.6000732       2.5-98.333333
   31          BST  1312.60381       0.0       1.031.5398425       2.5-98.333333
   32          BST  1467.23662       0.0       1.033.5766003       2.5-98.333333
   33          BST  1638.72385       0.0       1.0 35.715196       2.5-98.333333
   34          BST  1828.84329       0.0       1.037.9607215       2.5-98.333333
   35          BST  2039.55749       0.0       1.040.3185233       2.5-98.333333
   36          BST  2273.03278       0.0       1.042.7942151       2.5-98.333333
   37          BST  2531.66032       0.0       1.045.3936916       2.5-98.333333
   38          BST  2818.07927       0.0       1.048.1231418       2.5-98.333333
   39          BST  3135.20235       0.0       1.050.9890646       2.5-98.333333
   40          BST  3486.24404       0.0       1.053.9982835       2.5-98.333333
   41          BST  3874.75168       0.0       1.057.1579634       2.5-98.333333
   42          BST  4304.63973       0.0       1.060.4756272       2.5-98.333333
   43          BST   4780.2276       0.0       1.063.9591743       2.5-98.333333
   44          BST  5306.28135       0.0       1.067.6168987       2.5-98.333333
   45          BST  5888.05963       0.0       1.071.4575093       2.5-98.333333
   46          BST  6531.36441       0.0       1.075.4901504       2.5-98.333333
   47          BST  7242.59686       0.0       1.079.7244236       2.5-98.333333
   48          BST  8028.81901       0.0       1.084.1704105       2.5-98.333333
   49          BST  8897.82173       0.0       1.088.8386967       2.5-98.333333
   50          BST  9858.19967       0.0       1.093.7403972       2.5-98.333333
   51          BST  10919.4339       0.0       1.098.8871828       2.5-98.333333
   52          BST  12091.9831       0.0       1.0104.291308       2.5-98.333333
   53          BST  13387.3839       0.0       1.0109.965639       2.5-98.333333
   54          BST   14818.362       0.0       1.0115.923686       2.5-98.333333
   55          BST  16398.9539       0.0       1.0122.179636       2.5-98.333333
   56          BST  18144.6419       0.0       1.0128.748384       2.5-98.333333
   57          BST  20072.5027       0.0       1.0135.645569       2.5-98.333333
   58          BST   22201.371       0.0       1.0142.887613       2.5-98.333333
   59          BST  24552.0201       0.0       1.0150.491759       2.5-98.333333
   60          BST  27147.3612       0.0       1.0158.476113       2.5-98.333333
   61          BST  30012.6627       0.0       1.0166.859684       2.5-98.333333
   62          BST  33175.7925       0.0       1.0175.662434       2.5-98.333333
   63          BST  36667.4846       0.0       1.0184.905321       2.5-98.333333
   64          BST  40521.6339       0.0       1.0194.610353       2.5-98.333333
   65          BST    44775.62       0.0       1.0204.800636       2.5-98.333333
   66          BST  49470.6657       0.0       1.0215.500434       2.5-98.333333
   67          BST  54652.2308       0.0       1.0226.735221       2.5-98.333333
   68          BST  60370.4475       0.0       1.0238.531748       2.5-98.333333
   69          BST  66680.5994       0.0       1.0250.918101       2.5-98.333333
   70          BST   73643.651       0.0       1.0263.923772       2.5-98.333333
   71          BST  81326.8299       0.0       1.0277.579726       2.5-98.333333
   72          BST  89804.2699       0.0       1.0291.918478       2.5-98.333333
   73          BST  99157.7195       0.0       1.0306.974168       2.5-98.333333
   74          BST  109477.323       0.0       1.0322.782642       2.5-98.333333
   75          BST  120862.483       0.0       1.0 339.38154       2.5-98.333333
   76          BST  133422.809       0.0       1.0356.810382       2.5-98.333333
   77          BST  147279.164       0.0       1.0375.110667       2.5-98.333333
   78          BST  162564.821       0.0       1.0394.325966       2.5-98.333333
   79          BST  179426.735       0.0       1.0 414.50203       2.5-98.333333
   80          BST  198026.947       0.0       1.0435.686897       2.5-98.333333
   81          BST  218544.129       0.0       1.0457.931008       2.5-98.333333
   82          BST  241175.293       0.0       1.0481.287324       2.5-98.333333
   83          BST   266137.67       0.0       1.0505.811456       2.5-98.333333
   84          BST  293670.787       0.0       1.0531.561794       2.5-98.333333
   85          BST  324038.749       0.0       1.0558.599649       2.5-98.333333
   86          BST  357532.762       0.0       1.0586.989398       2.5-98.333333
   87          BST  394473.914       0.0       1.0616.798633       2.5-98.333333
   88          BST  435216.236       0.0       1.0648.098331       2.5-98.333333
   89          BST  480150.083       0.0       1.0680.963013       2.5-98.333333
   90          BST  529705.858       0.0       1.0715.470929       2.5-98.333333
   91          BST   584358.12       0.0       1.0751.704241       2.5-98.333333
   92          BST   644630.11       0.0       1.0789.749219       2.5-98.333333
   93          BST  711098.742       0.0       1.0829.696446       2.5-98.333333
   94          BST  784400.112       0.0       1.0871.641034       2.5-98.333333
   95          BST  865235.559       0.0       1.0915.682851       2.5-98.333333
   96          BST  954378.362       0.0       1.0961.926759       2.5-98.333333
   97          BST  1052681.11       0.0       1.01010.48286       2.5-98.333333
   98          BST  1161083.84       0.0       1.01061.46677       2.5-98.333333
   99          BST  1280622.99       0.0       1.01114.99988       2.5-98.333333
  1 0          BST  1.41244E46       0.0       1.01171.20964       2.5-98.333333
  1 1          BST  2.21361314       0.0       1.00.22988284       2.5     -95.0
  1 2          BST  7.08909607       0.0       1.00.70114267       2.5     -95.0
  1 3          BST  12.6967454       0.0       1.01.19596548       2.5     -95.0
  1 4          BST  19.1232296       0.0       1.01.71552944       2.5     -95.0
  1 5          BST  26.4646818       0.0       1.0 2.2610716       2.5     -95.0
  1 6          BST   34.827699       0.0       1.02.83389086       2.5     -95.0
  1 7          BST  44.3304448       0.0       1.03.43535109       2.5     -95.0
  1 8          BST  55.1038673       0.0       1.04.06688432       2.5     -95.0
  1 9          BST  67.2930433       0.0       1.04.72999422       2.5     -95.0
  110          BST  81.0586612       0.0       1.05.42625962       2.5     -95.0
  111          BST  96.5786591       0.0       1.06.15733828       2.5     -95.0
  112          BST  114.050031       0.0       1.06.92497088       2.5     -95.0
  113          BST  133.690821       0.0       1.07.73098511       2.5     -95.0
  114          BST  155.742326       0.0       1.08.57730005       2.5     -95.0
  115          BST   180.47152       0.0       1.09.46593073       2.5     -95.0
  116          BST  208.173736       0.0       1.0 10.398993       2.5     -95.0
  117          BST  239.175624       0.0       1.011.3787083       2.5     -95.0
  118          BST  273.838409       0.0       1.012.4074094       2.5     -95.0
  119          BST  312.561494       0.0       1.013.4875455       2.5     -95.0
  120          BST  355.786427       0.0       1.014.6216885       2.5     -95.0
  121          BST  404.001285       0.0       1.015.8125386       2.5     -95.0
  122          BST  457.745504       0.0       1.017.0629312       2.5     -95.0
  123          BST  517.615209       0.0       1.018.3758435       2.5     -95.0
  124          BST  584.269098       0.0       1.019.7544013       2.5     -95.0
  125          BST  658.434928       0.0       1.021.2018871       2.5     -95.0
  126          BST  740.916668       0.0       1.022.7217471       2.5     -95.0
  127          BST  832.602394       0.0       1.024.3176001       2.5     -95.0
  128          BST  934.472995       0.0       1.025.9932458       2.5     -95.0
  129          BST  1047.61178       0.0       1.027.7526738       2.5     -95.0
  130          BST  1173.21505       0.0       1.029.6000732       2.5     -95.0
  131          BST  1312.60381       0.0       1.031.5398425       2.5     -95.0
  132          BST  1467.23662       0.0       1.033.5766003       2.5     -95.0
  133          BST  1638.72385       0.0       1.0 35.715196       2.5     -95.0
  134          BST  1828.84329       0.0       1.037.9607215       2.5     -95.0
  135          BST  2039.55749       0.0       1.040.3185233       2.5     -95.0
  136          BST  2273.03278       0.0       1.042.7942151       2.5     -95.0
  137          BST  2531.66032       0.0       1.045.3936916       2.5     -95.0
  138          BST  2818.07927       0.0       1.048.1231418       2.5     -95.0
  139          BST  3135.20235       0.0       1.050.9890646       2.5     -95.0
  140          BST  3486.24404       0.0       1.053.9982835       2.5     -95.0
  141          BST  3874.75168       0.0       1.057.1579634       2.5     -95.0
  142          BST  4304.63973       0.0       1.060.4756272       2.5     -95.0
  143          BST   4780.2276       0.0       1.063.9591743       2.5     -95.0
  144          BST  5306.28135       0.0       1.067.6168987       2.5     -95.0
  145          BST  5888.05963       0.0       1.071.4575093       2.5     -95.0
  146          BST  6531.36441       0.0       1.075.4901504       2.5     -95.0
  147          BST  7242.59686       0.0       1.079.7244236       2.5     -95.0
  148          BST  8028.81901       0.0       1.084.1704105       2.5     -95.0
  149          BST  8897.82173       0.0       1.088.8386967       2.5     -95.0
  150          BST  9858.19967       0.0       1.093.7403972       2.5     -95.0
  151          BST  10919.4339       0.0       1.098.8871828       2.5     -95.0
  152          BST  12091.9831       0.0       1.0104.291308       2.5     -95.0
  153          BST  13387.3839       0.0       1.0109.965639       2.5     -95.0
  154          BST   14818.362       0.0       1.0115.923686       2.5     -95.0
  155          BST  16398.9539       0.0       1.0122.179636       2.5     -95.0
  156          BST  18144.6419       0.0       1.0128.748384       2.5     -95.0
  157          BST  20072.5027       0.0       1.0135.645569       2.5     -95.0
  158          BST   22201.371       0.0       1.0142.887613       2.5     -95.0
  159          BST  24552.0201       0.0       1.0150.491759       2.5     -95.0
  160          BST  27147.3612       0.0       1.0158.476113       2.5     -95.0
  161          BST  30012.6627       0.0       1.0166.859684       2.5     -95.0
  162          BST  33175.7925       0.0       1.0175.662434       2.5     -95.0
  163          BST  36667.4846       0.0       1.0184.905321       2.5     -95.0
  164          BST  40521.6339       0.0       1.0194.610353       2.5     -95.0
  165          BST    44775.62       0.0       1.0204.800636       2.5     -95.0
  166          BST  49470.6657       0.0       1.0215.500434       2.5     -95.0
  167          BST  54652.2308       0.0       1.0226.735221       2.5     -95.0
  168          BST  60370.4475       0.0       1.0238.531748       2.5     -95.0
  169          BST  66680.5994       0.0       1.0250.918101       2.5     -95.0
  170          BST   73643.651       0.0       1.0263.923772       2.5     -95.0
  171          BST  81326.8299       0.0       1.0277.579726       2.5     -95.0
  172          BST  89804.2699       0.0       1.0291.918478       2.5     -95.0
  173          BST  99157.7195       0.0       1.0306.974168       2.5     -95.0
  174          BST  109477.323       0.0       1.0322.782642       2.5     -95.0
  175          BST  120862.483       0.0       1.0 339.38154       2.5     -95.0
  176          BST  133422.809       0.0       1.0356.810382       2.5     -95.0
  177          BST  147279.164       0.0       1.0375.110667       2.5     -95.0
  178          BST  162564.821       0.0       1.0394.325966       2.5     -95.0
  179          BST  179426.735       0.0       1.0 414.50203       2.5     -95.0
  180          BST  198026.947       0.0       1.0435.686897       2.5     -95.0
  181          BST  218544.129       0.0       1.0457.931008       2.5     -95.0
  182          BST  241175.293       0.0       1.0481.287324       2.5     -95.0
  183          BST   266137.67       0.0       1.0505.811456       2.5     -95.0
  184          BST  293670.787       0.0       1.0531.561794       2.5     -95.0
  185          BST  324038.749       0.0       1.0558.599649       2.5     -95.0
  186          BST  357532.762       0.0       1.0586.989398       2.5     -95.0
  187          BST  394473.914       0.0       1.0616.798633       2.5     -95.0
  188          BST  435216.236       0.0       1.0648.098331       2.5     -95.0
  189          BST  480150.083       0.0       1.0680.963013       2.5     -95.0
  190          BST  529705.858       0.0       1.0715.470929       2.5     -95.0
  191          BST   584358.12       0.0       1.0751.704241       2.5     -95.0
  192          BST   644630.11       0.0       1.0789.749219       2.5     -95.0
  193          BST  711098.742       0.0       1.0829.696446       2.5     -95.0
  194          BST  784400.112       0.0       1.0871.641034       2.5     -95.0
  195          BST  865235.559       0.0       1.0915.682851       2.5     -95.0
  196          BST  954378.362       0.0       1.0961.926759       2.5     -95.0
  197          BST  1052681.11       0.0       1.01010.48286       2.5     -95.0
  198          BST  1161083.84       0.0       1.01061.46677       2.5     -95.0
  199          BST  1280622.99       0.0       1.01114.99988       2.5     -95.0
  2 0          BST  1.41244E46       0.0       1.01171.20964       2.5     -95.0
  2 1          BST  2.21361314       0.0       1.00.22988284       2.5-91.666667
  2 2          BST  7.08909607       0.0       1.00.70114267       2.5-91.666667
  2 3          BST  12.6967454       0.0       1.01.19596548       2.5-91.666667
  2 4          BST  19.1232296       0.0       1.01.71552944       2.5-91.666667
  2 5          BST  26.4646818       0.0       1.0 2.2610716       2.5-91.666667
  2 6          BST   34.827699       0.0       1.02.83389086       2.5-91.666667
  2 7          BST  44.3304448       0.0       1.03.43535109       2.5-91.666667
  2 8          BST  55.1038673       0.0       1.04.06688432       2.5-91.666667
  2 9          BST  67.2930433       0.0       1.04.72999422       2.5-91.666667
  210          BST  81.0586612       0.0       1.05.42625962       2.5-91.666667
  211          BST  96.5786591       0.0       1.06.15733828       2.5-91.666667
  212          BST  114.050031       0.0       1.06.92497088       2.5-91.666667
  213          BST  133.690821       0.0       1.07.73098511       2.5-91.666667
  214          BST  155.742326       0.0       1.08.57730005       2.5-91.666667
  215          BST   180.47152       0.0       1.09.46593073       2.5-91.666667
  216          BST  208.173736       0.0       1.0 10.398993       2.5-91.666667
  217          BST  239.175624       0.0       1.011.3787083       2.5-91.666667
  218          BST  273.838409       0.0       1.012.4074094       2.5-91.666667
  219          BST  312.561494       0.0       1.013.4875455       2.5-91.666667
  220          BST  355.786427       0.0       1.014.6216885       2.5-91.666667
  221          BST  404.001285       0.0       1.015.8125386       2.5-91.666667
  222          BST  457.745504       0.0       1.017.0629312       2.5-91.666667
  223          BST  517.615209       0.0       1.018.3758435       2.5-91.666667
  224          BST  584.269098       0.0       1.019.7544013       2.5-91.666667
  225          BST  658.434928       0.0       1.021.2018871       2.5-91.666667
  226          BST  740.916668       0.0       1.022.7217471       2.5-91.666667
  227          BST  832.602394       0.0       1.024.3176001       2.5-91.666667
  228          BST  934.472995       0.0       1.025.9932458       2.5-91.666667
  229          BST  1047.61178       0.0       1.027.7526738       2.5-91.666667
  230          BST  1173.21505       0.0       1.029.6000732       2.5-91.666667
  231          BST  1312.60381       0.0       1.031.5398425       2.5-91.666667
  232          BST  1467.23662       0.0       1.033.5766003       2.5-91.666667
  233          BST  1638.72385       0.0       1.0 35.715196       2.5-91.666667
  234          BST  1828.84329       0.0       1.037.9607215       2.5-91.666667
  235          BST  2039.55749       0.0       1.040.3185233       2.5-91.666667
  236          BST  2273.03278       0.0       1.042.7942151       2.5-91.666667
  237          BST  2531.66032       0.0       1.045.3936916       2.5-91.666667
  238          BST  2818.07927       0.0       1.048.1231418       2.5-91.666667
  239          BST  3135.20235       0.0       1.050.9890646       2.5-91.666667
  240          BST  3486.24404       0.0       1.053.9982835       2.5-91.666667
  241          BST  3874.75168       0.0       1.057.1579634       2.5-91.666667
  242          BST  4304.63973       0.0       1.060.4756272       2.5-91.666667
  243          BST   4780.2276       0.0       1.063.9591743       2.5-91.666667
  244          BST  5306.28135       0.0       1.067.6168987       2.5-91.666667
  245          BST  5888.05963       0.0       1.071.4575093       2.5-91.666667
  246          BST  6531.36441       0.0       1.075.4901504       2.5-91.666667
  247          BST  7242.59686       0.0       1.079.7244236       2.5-91.666667
  248          BST  8028.81901       0.0       1.084.1704105       2.5-91.666667
  249          BST  8897.82173       0.0       1.088.8386967       2.5-91.666667
  250          BST  9858.19967       0.0       1.093.7403972       2.5-91.666667
  251          BST  10919.4339       0.0       1.098.8871828       2.5-91.666667
  252          BST  12091.9831       0.0       1.0104.291308       2.5-91.666667
  253          BST  13387.3839       0.0       1.0109.965639       2.5-91.666667
  254          BST   14818.362       0.0       1.0115.923686       2.5-91.666667
  255          BST  16398.9539       0.0       1.0122.179636       2.5-91.666667
  256          BST  18144.6419       0.0       1.0128.748384       2.5-91.666667
  257          BST  20072.5027       0.0       1.0135.645569       2.5-91.666667
  258          BST   22201.371       0.0       1.0142.887613       2.5-91.666667
  259          BST  24552.0201       0.0       1.0150.491759       2.5-91.666667
  260          BST  27147.3612       0.0       1.0158.476113       2.5-91.666667
  261          BST  30012.6627       0.0       1.0166.859684       2.5-91.666667
  262          BST  33175.7925       0.0       1.0175.662434       2.5-91.666667
  263          BST  36667.4846       0.0       1.0184.905321       2.5-91.666667
  264          BST  40521.6339       0.0       1.0194.610353       2.5-91.666667
  265          BST    44775.62       0.0       1.0204.800636       2.5-91.666667
  266          BST  49470.6657       0.0       1.0215.500434       2.5-91.666667
  267          BST  54652.2308       0.0       1.0226.735221       2.5-91.666667
  268          BST  60370.4475       0.0       1.0238.531748       2.5-91.666667
  269          BST  66680.5994       0.0       1.0250.918101       2.5-91.666667
  270          BST   73643.651       0.0       1.0263.923772       2.5-91.666667
  271          BST  81326.8299       0.0       1.0277.579726       2.5-91.666667
  272          BST  89804.2699       0.0       1.0291.918478       2.5-91.666667
  273          BST  99157.7195       0.0       1.0306.974168       2.5-91.666667
  274          BST  109477.323       0.0       1.0322.782642       2.5-91.666667
  275          BST  120862.483       0.0       1.0 339.38154       2.5-91.666667
  276          BST  133422.809       0.0       1.0356.810382       2.5-91.666667
  277          BST  147279.164       0.0       1.0375.110667       2.5-91.666667
  278          BST  162564.821       0.0       1.0394.325966       2.5-91.666667
  279          BST  179426.735       0.0       1.0 414.50203       2.5-91.666667
  280          BST  198026.947       0.0       1.0435.686897       2.5-91.666667
  281          BST  218544.129       0.0       1.0457.931008       2.5-91.666667
  282          BST  241175.293       0.0       1.0481.287324       2.5-91.666667
  283          BST   266137.67       0.0       1.0505.811456       2.5-91.666667
  284          BST  293670.787       0.0       1.0531.561794       2.5-91.666667
  285          BST  324038.749       0.0       1.0558.599649       2.5-91.666667
  286          BST  357532.762       0.0       1.0586.989398       2.5-91.666667
  287          BST  394473.914       0.0       1.0616.798633       2.5-91.666667
  288          BST  435216.236       0.0       1.0648.098331       2.5-91.666667
  289          BST  480150.083       0.0       1.0680.963013       2.5-91.666667
  290          BST  529705.858       0.0       1.0715.470929       2.5-91.666667
  291          BST   584358.12       0.0       1.0751.704241       2.5-91.666667
  292          BST   644630.11       0.0       1.0789.749219       2.5-91.666667
  293          BST  711098.742       0.0       1.0829.696446       2.5-91.666667
  294          BST  784400.112       0.0       1.0871.641034       2.5-91.666667
  295          BST  865235.559       0.0       1.0915.682851       2.5-91.666667
  296          BST  954378.362       0.0       1.0961.926759       2.5-91.666667
  297          BST  1052681.11       0.0       1.01010.48286       2.5-91.666667
  298          BST  1161083.84       0.0       1.01061.46677       2.5-91.666667
  299          BST  1280622.99       0.0       1.01114.99988       2.5-91.666667
  3 0          BST  1.41244E46       0.0       1.01171.20964       2.5-91.666667
  3 1          BST  2.21361314       0.0       1.00.22988284       2.5-88.333333
  3 2          BST  7.08909607       0.0       1.00.70114267       2.5-88.333333
  3 3          BST  12.6967454       0.0       1.01.19596548       2.5-88.333333
  3 4          BST  19.1232296       0.0       1.01.71552944       2.5-88.333333
  3 5          BST  26.4646818       0.0       1.0 2.2610716       2.5-88.333333
  3 6          BST   34.827699       0.0       1.02.83389086       2.5-88.333333
  3 7          BST  44.3304448       0.0       1.03.43535109       2.5-88.333333
  3 8          BST  55.1038673       0.0       1.04.06688432       2.5-88.333333
  3 9          BST  67.2930433       0.0       1.04.72999422       2.5-88.333333
  310          BST  81.0586612       0.0       1.05.42625962       2.5-88.333333
  311          BST  96.5786591       0.0       1.06.15733828       2.5-88.333333
  312          BST  114.050031       0.0       1.06.92497088       2.5-88.333333
  313          BST  133.690821       0.0       1.07.73098511       2.5-88.333333
  314          BST  155.742326       0.0       1.08.57730005       2.5-88.333333
  315          BST   180.47152       0.0       1.09.46593073       2.5-88.333333
  316          BST  208.173736       0.0       1.0 10.398993       2.5-88.333333
  317          BST  239.175624       0.0       1.011.3787083       2.5-88.333333
  318          BST  273.838409       0.0       1.012.4074094       2.5-88.333333
  319          BST  312.561494       0.0       1.013.4875455       2.5-88.333333
  320          BST  355.786427       0.0       1.014.6216885       2.5-88.333333
  321          BST  404.001285       0.0       1.015.8125386       2.5-88.333333
  322          BST  457.745504       0.0       1.017.0629312       2.5-88.333333
  323          BST  517.615209       0.0       1.018.3758435       2.5-88.333333
  324          BST  584.269098       0.0       1.019.7544013       2.5-88.333333
  325          BST  658.434928       0.0       1.021.2018871       2.5-88.333333
  326          BST  740.916668       0.0       1.022.7217471       2.5-88.333333
  327          BST  832.602394       0.0       1.024.3176001       2.5-88.333333
  328          BST  934.472995       0.0       1.025.9932458       2.5-88.333333
  329          BST  1047.61178       0.0       1.027.7526738       2.5-88.333333
  330          BST  1173.21505       0.0       1.029.6000732       2.5-88.333333
  331          BST  1312.60381       0.0       1.031.5398425       2.5-88.333333
  332          BST  1467.23662       0.0       1.033.5766003       2.5-88.333333
  333          BST  1638.72385       0.0       1.0 35.715196       2.5-88.333333
  334          BST  1828.84329       0.0       1.037.9607215       2.5-88.333333